LTspice 24.1.8 for Windows
Circuit: C:\Users\91844\Downloads\OTA_SingleEnded_Design.net
Start Time: Mon Jun  9 00:29:32 2025
Options: ALLOW_AMBIGUOUS_MODELS
solver = Normal
Maximum thread count: 16
tnom = 27
temp = 27
method = trap
WARNING: Node n013 is floating.
WARNING: Node n014 is floating.
WARNING: Node n007 is floating.
WARNING: Node n012 is floating.
WARNING: Node n005 is floating.

Direct Newton iteration failed to find .op point.  (Use ".option noopiter" to skip.)
Starting Gmin stepping
Gmin = 10
Gmin = 1.07374
Gmin = 0.115292
Gmin = 0.0123794
Gmin = 0.00132923
Gmin = 0.000142725
Gmin = 1.5325e-05
Gmin = 1.6455e-06
Gmin = 1.76685e-07
Gmin = 1.89714e-08
Gmin = 2.03704e-09
Gmin = 2.18725e-10
Gmin = 2.34854e-11
Gmin = 2.52173e-12
Gmin = 2.70769e-13
Gmin = 0
Gmin stepping succeeded in finding the operating point.

Total elapsed time: 0.170 seconds.

Files loaded:
C:\Users\91844\Downloads\OTA_SingleEnded_Design.net
C:\Users\91844\AppData\Local\LTspice\lib\cmp\standard.mos
C:\Users\91844\AppData\Local\LTspice\lib\cmp\65nm_bulk.txt

