LTspice 24.1.8 for Windows
Circuit: C:\Users\91844\Downloads\Corrected_4T_Pixel_SourceFollower.net
Start Time: Wed Jun  4 15:37:07 2025
solver = Normal
Maximum thread count: 16
tnom = 27
temp = 27
method = trap
WARNING: Node nc_01 is floating.

Direct Newton iteration for .op point succeeded.
Total elapsed time: 0.130 seconds.

Files loaded:
C:\Users\91844\Downloads\Corrected_4T_Pixel_SourceFollower.net
C:\Users\91844\AppData\Local\LTspice\lib\cmp\standard.mos
C:\Users\91844\AppData\Local\LTspice\lib\cmp\65nm_bulk.txt

